File \\FS\Design\OneDrive - Acrow Misr-Metallic Scaffolding and Formwork\Design\01-PROJECTS KSA\2025 PROJECTS\01-JEDDAH\S-4353-Qiddiya Hotel-FCC CO\ONE SIDED WALL (10-11-2025)\V.01\Sap Single sided\single sided.$2k was saved on m/d/yy at h:mm:ss
 
TABLE:  "ACTIVE DEGREES OF FREEDOM"
   UX=Yes   UY=No   UZ=Yes   RX=No   RY=Yes   RZ=No
 
TABLE:  "ANALYSIS OPTIONS"
   Solver=Advanced   SolverProc=Auto   Force32Bit=No   StiffCase=None   GeomMod=None   HingeOpt="In Elements"
 
TABLE:  "AREA SECTION PROPERTIES"
   Section=ASEC1   Material=4000Psi   MatAngle=0   AreaType=Shell   Type=Shell-Thin   DrillDOF=Yes   Thickness=0.25   BendThick=0.25   Color=Cyan   F11Mod=1   F22Mod=1   F12Mod=1   M11Mod=1   M22Mod=1   M12Mod=1   V13Mod=1   V23Mod=1 _
        MMod=1   WMod=1   GUID=2d0efe5c-6e84-4209-99b2-05812d8c4487
 
TABLE:  "AREA SECTION PROPERTY DESIGN PARAMETERS"
   Section=ASEC1   RebarMat=None   RebarOpt=Default
 
TABLE:  "AREA SECTION PROPERTY - TIME DEPENDENT"
   Section=ASEC1   TypeSize=Auto   AutoSFSize=1
 
TABLE:  "AUTO COMBINATION OPTION DATA 01 - GENERAL"
   DesignType=Steel   AutoGen=Yes
 
TABLE:  "AUTO COMBINATION OPTION DATA 02 - USER DATA"
   DesignType=Steel   LSType=Strength   LCName=DEAD
   DesignType=Steel   LSType=Strength   LCName=LIVE
   DesignType=Steel   LSType=Deflection   LCName=DEAD
   DesignType=Steel   LSType=Deflection   LCName=LIVE
 
TABLE:  "AUTO WAVE 3 - WAVE CHARACTERISTICS - GENERAL"
   WaveChar=Default   WaveType="From Theory"   KinFactor=1   SWaterDepth=45   WaveHeight=18   WavePeriod=12   WaveTheory=Linear
 
TABLE:  "CASE - MODAL 1 - GENERAL"
   Case=MODAL   ModeType=Eigen   MaxNumModes=12   MinNumModes=1   EigenShift=0   EigenCutoff=0   EigenTol=1E-09   AutoShift=Yes
 
TABLE:  "CASE - STATIC 1 - LOAD ASSIGNMENTS"
   Case=DEAD   LoadType="Load pattern"   LoadName=DEAD   LoadSF=1
   Case=LIVE   LoadType="Load pattern"   LoadName=LIVE   LoadSF=1
 
TABLE:  "COMBINATION DEFINITIONS"
   ComboName=COMB1   ComboType="Linear Add"   AutoDesign=No   CaseName=DEAD   ScaleFactor=1   SteelDesign=None   ConcDesign=None   AlumDesign=None   ColdDesign=None   GUID=96e394eb-a8e4-4c12-8909-6259f3340e3a
   ComboName=COMB1   CaseName=LIVE   ScaleFactor=1
   ComboName=DSTL1   ComboType="Linear Add"   AutoDesign=Yes   CaseName=DEAD   ScaleFactor=1.4   SteelDesign=Strength   ConcDesign=None   AlumDesign=None   ColdDesign=None   GUID=2682156e-9da7-4ed1-bdb2-68324851e187   Notes="Dead Only; Strength"
   ComboName=DSTL2   ComboType="Linear Add"   AutoDesign=Yes   CaseName=DEAD   ScaleFactor=1.4   SteelDesign=Strength   ConcDesign=None   AlumDesign=None   ColdDesign=None   GUID=d80a8265-3155-44fe-bb8f-b5ef1faaa92e   Notes="Dead + Live; Strength"
   ComboName=DSTL2   CaseName=LIVE   ScaleFactor=1.6
   ComboName=DSTL3   ComboType="Linear Add"   AutoDesign=Yes   CaseName=DEAD   ScaleFactor=1   SteelDesign=Deflection   ConcDesign=None   AlumDesign=None   ColdDesign=None   GUID=07416f39-214c-4e6e-b25f-df28cafb9710   Notes="Dead Only; Deflection"
   ComboName=DSTL4   ComboType="Linear Add"   AutoDesign=Yes   CaseName=DEAD   ScaleFactor=1   SteelDesign=Deflection   ConcDesign=None   AlumDesign=None   ColdDesign=None   GUID=cc7d6c5f-a0d7-4385-87d1-2fd2fb84c7bb   Notes="Dead + Live; Deflection"
   ComboName=DSTL4   CaseName=LIVE   ScaleFactor=1
 
TABLE:  "CONNECTIVITY - FRAME"
   Frame=11   JointI=27   JointJ=28   IsCurved=No   GUID=6eb5fdf8-019f-4640-8b64-809f37f1a367
   Frame=12   JointI=27   JointJ=29   IsCurved=No   GUID=c6fc914b-b034-43d0-ac59-e0e0899d99d3
   Frame=13   JointI=30   JointJ=33   IsCurved=No   GUID=52e3829f-3b5c-4486-8ae9-9b6c86dc7f20
   Frame=14   JointI=31   JointJ=34   IsCurved=No   GUID=9a8d7656-972b-4fc1-99c6-fddd62e2c1db
   Frame=15   JointI=32   JointJ=35   IsCurved=No   GUID=6af5e3af-2ebd-4762-adff-8bdb7cf091d1
 
TABLE:  "CONSTRAINT DEFINITIONS - BODY"
   Name=BODY1   CoordSys=GLOBAL   UX=No   UY=No   UZ=Yes   RX=No   RY=No   RZ=No
 
TABLE:  "COORDINATE SYSTEMS"
   Name=GLOBAL   Type=Cartesian   X=0   Y=0   Z=0   AboutZ=0   AboutY=0   AboutX=0
 
TABLE:  "DATABASE DOCUMENTATION"
 
TABLE:  "DATABASE FORMAT TYPES"
   UnitsCurr=Yes   OverrideE=No
 
TABLE:  "FRAME AUTO MESH ASSIGNMENTS"
   Frame=11   AutoMesh=Yes   AtJoints=Yes   AtFrames=No   NumSegments=0   MaxLength=0   MaxDegrees=0
   Frame=12   AutoMesh=Yes   AtJoints=Yes   AtFrames=No   NumSegments=0   MaxLength=0   MaxDegrees=0
   Frame=13   AutoMesh=Yes   AtJoints=Yes   AtFrames=No   NumSegments=0   MaxLength=0   MaxDegrees=0
   Frame=14   AutoMesh=Yes   AtJoints=Yes   AtFrames=No   NumSegments=0   MaxLength=0   MaxDegrees=0
   Frame=15   AutoMesh=Yes   AtJoints=Yes   AtFrames=No   NumSegments=0   MaxLength=0   MaxDegrees=0
 
TABLE:  "FRAME DESIGN PROCEDURES"
   Frame=11   DesignProc="From Material"
   Frame=12   DesignProc="From Material"
   Frame=13   DesignProc="From Material"
   Frame=14   DesignProc="From Material"
   Frame=15   DesignProc="From Material"
 
TABLE:  "FRAME LOAD TRANSFER OPTIONS"
   Frame=11   Transfer=Yes
   Frame=12   Transfer=Yes
   Frame=13   Transfer=Yes
   Frame=14   Transfer=Yes
   Frame=15   Transfer=Yes
 
TABLE:  "FRAME OUTPUT STATION ASSIGNMENTS"
   Frame=11   StationType=MinNumSta   MinNumSta=3   AddAtElmInt=Yes   AddAtPtLoad=Yes
   Frame=12   StationType=MaxStaSpcg   MaxStaSpcg=0.5   AddAtElmInt=Yes   AddAtPtLoad=Yes
   Frame=13   StationType=MinNumSta   MinNumSta=3   AddAtElmInt=Yes   AddAtPtLoad=Yes
   Frame=14   StationType=MinNumSta   MinNumSta=3   AddAtElmInt=Yes   AddAtPtLoad=Yes
   Frame=15   StationType=MinNumSta   MinNumSta=3   AddAtElmInt=Yes   AddAtPtLoad=Yes
 
TABLE:  "FRAME RELEASE ASSIGNMENTS 1 - GENERAL"
   Frame=13   PI=No   V2I=No   V3I=No   TI=No   M2I=Yes   M3I=Yes   PJ=No   V2J=No   V3J=No   TJ=No   M2J=Yes   M3J=Yes
   Frame=14   PI=No   V2I=No   V3I=No   TI=No   M2I=Yes   M3I=Yes   PJ=No   V2J=No   V3J=No   TJ=No   M2J=Yes   M3J=Yes
   Frame=15   PI=No   V2I=No   V3I=No   TI=No   M2I=Yes   M3I=Yes   PJ=No   V2J=No   V3J=No   TJ=No   M2J=Yes   M3J=Yes
 
TABLE:  "FRAME SECTION ASSIGNMENTS"
   Frame=11   AutoSelect=N.A.   AnalSect="soldier 10"   MatProp=Default
   Frame=12   AutoSelect=N.A.   AnalSect="soldier 10"   MatProp=Default
   Frame=13   AutoSelect=N.A.   AnalSect=PPS132   MatProp=Default
   Frame=14   AutoSelect=N.A.   AnalSect=PPH204   MatProp=Default
   Frame=15   AutoSelect=N.A.   AnalSect=PPH304   MatProp=Default
 
TABLE:  "FRAME SECTION PROPERTIES 01 - GENERAL"
   SectionName="Angle 50x50x5"   Material=MAT   Shape=Angle   t3=0.05   t2=0.05   tf=0.005   tw=0.005   Area=0.000475   TorsConst=3.80520833333333E-09   I33=1.1250274122807E-07   I22=1.1250274122807E-07   I23=6.66118421052632E-08 _
        AS2=0.00025   AS3=0.00025   S33=3.15505842558426E-06   S22=3.15505842558426E-06   Z33=5.684375E-06   Z22=5.684375E-06   R33=0.015389862776179   R22=0.015389862776179   Color=White   FromFile=No   AMod=1   A2Mod=1   A3Mod=1   JMod=1 _
        I2Mod=1   I3Mod=1   MMod=1   WMod=1   Notes="Added 02-Dec-14 9:18:45 AM"
   SectionName="channel splice"   Material=steel   Shape="Double Channel"   t3=0.085   t2=0.134   tf=0.006   tw=0.006   dis=0.064   Area=0.001716   TorsConst=1.895904E-08   I33=1.702147E-06   I22=3.219688E-06   I23=0   AS2=0.00102 _
        AS3=0.00084   S33=4.00505176470588E-05   S22=4.80550447761194E-05   Z33=4.9167E-05   Z22=7.224E-05   R33=0.0314948750779735   R22=0.0433159907917972   Color=White   FromFile=No   AMod=1   A2Mod=1   A3Mod=1   JMod=1   I2Mod=1 _
        I3Mod=1   MMod=1   WMod=1   Notes="Added 28-Nov-15 2:13:26 PM"
   SectionName="double H20"   Material=TIMBER   Shape="SD Section"   Area=0.02   TorsConst=5.97278039195852E-05   I33=9.22666666666667E-05   I22=3.93666666666667E-05   I23=0   AS2=0.0116627472746217   AS3=0.012622119786703 _
        S33=0.000922666666666667   S22=0.000492083333333333   Z33=0.00124   Z22=0.0008   R33=0.0679215233437335   R22=0.044365902823377   Color=Yellow   FromFile=No   AMod=1   A2Mod=1   A3Mod=1   JMod=1   I2Mod=1   I3Mod=1   MMod=1   WMod=1   Notes="Added 27/07/2016 03:44:52 ص"
   SectionName="double soldier"   Material=MAT   Shape="Double Channel"   t3=0.18   t2=0.152   tf=0.01   tw=0.01   dis=0.052   Area=0.0052   TorsConst=1.60733333333333E-07   I33=2.12933333333333E-05   I22=8.72053333333333E-06   I23=0 _
        AS2=0.0036   AS3=0.002   S33=0.000236592592592592   S22=0.000114743859649123   Z33=0.000298   Z22=0.0002012   R33=0.0639911852904116   R22=0.0409515035258248   Color=Green   FromFile=No   AMod=1   A2Mod=1   A3Mod=1   JMod=1 _
        I2Mod=1   I3Mod=1   MMod=1   WMod=1   Notes="Added 01-Dec-14 9:52:22 AM"
   SectionName=FSEC1   Material=MAT   Shape=Pipe   t3=0.0966   tw=0.004   Area=0.00116364591888966   TorsConst=2.49915070354013E-06   I33=1.24957535177007E-06   I22=1.24957535177007E-06   I23=0   AS2=0.000582546274603104 _
        AS3=0.000582546274603104   S33=2.58711252954465E-05   S22=2.58711252954465E-05   Z33=3.43203733333333E-05   Z22=3.43203733333333E-05   R33=0.0327695743030025   R22=0.0327695743030025   Color=Cyan   FromFile=No   AMod=1   A2Mod=1 _
        A3Mod=1   JMod=1   I2Mod=1   I3Mod=1   MMod=1   WMod=1   Notes="Added 02-Dec-14 9:28:18 AM"
   SectionName=FSEC2   Material=A992Fy50   Shape=Rectangular   t3=0.5   t2=0.3   Area=0.15   TorsConst=0.0028173708   I33=0.003125   I22=0.001125   I23=0   AS2=0.125   AS3=0.125   S33=0.0125   S22=0.0075   Z33=0.01875   Z22=0.01125 _
        R33=0.144337567297406   R22=0.0866025403784439   Color=Green   FromFile=No   AMod=1   A2Mod=1   A3Mod=1   JMod=1   I2Mod=1   I3Mod=1   MMod=1   WMod=1   Notes="Added 27/07/2016 03:43:55 ص"
   SectionName=H20   Material=TIMBER   Shape="I/Wide Flange"   t3=0.2   t2=0.08   tf=0.04   tw=0.027   t2b=0.08   tfb=0.04   Area=0.00964   TorsConst=3.01385072333333E-06   I33=4.57013333333333E-05   I22=3.61016333333333E-06   I23=0 _
        AS2=0.0054   AS3=0.00533333333333333   S33=0.000457013333333333   S22=9.02540833333333E-05   Z33=0.0006092   Z22=0.00014987   R33=0.0688534836664158   R22=0.0193519578103268   Color=White   FromFile=No   AMod=1   A2Mod=1   A3Mod=1 _
        JMod=1   I2Mod=1   I3Mod=1   MMod=1   WMod=1   Notes="Added 28-Nov-15 5:17:17 PM"
   SectionName=plate   Material=MAT   Shape="SD Section"   Area=0   TorsConst=0   I33=0   I22=0   I23=0   AS2=0   AS3=0   S33=0   S22=0   Z33=0   Z22=0   R33=0   R22=0   Color=Yellow   FromFile=No   AMod=1   A2Mod=1   A3Mod=1   JMod=1 _
        I2Mod=1   I3Mod=1   MMod=1   WMod=1   Notes="Added 01-Dec-14 10:48:35 AM"
   SectionName="plate 50 x 8"   Material=MAT   Shape="SD Section"   Area=0   TorsConst=0   I33=0   I22=0   I23=0   AS2=0   AS3=0   S33=0   S22=0   Z33=0   Z22=0   R33=0   R22=0   Color=Gray8Dark   FromFile=No   AMod=1   A2Mod=1   A3Mod=1 _
        JMod=1   I2Mod=1   I3Mod=1   MMod=1   WMod=1   Notes="Added 02-Dec-14 9:22:18 AM"
   SectionName="pph 1.5""x"   Material=steel   Shape=Pipe   t3=0.048   tw=0.002   Area=0.000289026524130261   TorsConst=1.53184057789038E-07   I33=7.65920288945192E-08   I22=7.65920288945192E-08   I23=0   AS2=0.000144695268692417 _
        AS3=0.000144695268692417   S33=3.19133453727163E-06   S22=3.19133453727163E-06   Z33=4.23466666666667E-06   Z22=4.23466666666667E-06   R33=0.0162788205960997   R22=0.0162788205960997   Color=Blue   FromFile=No   AMod=1   A2Mod=1 _
        A3Mod=1   JMod=1   I2Mod=1   I3Mod=1   MMod=1   WMod=1   Notes="Added 28-Nov-15 2:07:03 PM"
   SectionName=PPH204   Material=steel   Shape=Pipe   t3=0.06   tw=0.0025   Area=0.000451603943953533   TorsConst=3.73984516086519E-07   I33=1.8699225804326E-07   I22=1.8699225804326E-07   I23=0   AS2=0.000226086357331901 _
        AS3=0.000226086357331901   S33=6.23307526810866E-06   S22=6.23307526810866E-06   Z33=8.27083333333333E-06   Z22=8.27083333333333E-06   R33=0.0203485257451246   R22=0.0203485257451246   Color=Blue   FromFile=No   AMod=1   A2Mod=1 _
        A3Mod=1   JMod=1   I2Mod=1   I3Mod=1   MMod=1   WMod=1   Notes="Added 02/09/2025 11:21:53"
   SectionName=PPH304   Material=steel   Shape=Pipe   t3=0.06   tw=0.0025   Area=0.000451603943953533   TorsConst=3.73984516086519E-07   I33=1.8699225804326E-07   I22=1.8699225804326E-07   I23=0   AS2=0.000226086357331901 _
        AS3=0.000226086357331901   S33=6.23307526810866E-06   S22=6.23307526810866E-06   Z33=8.27083333333333E-06   Z22=8.27083333333333E-06   R33=0.0203485257451246   R22=0.0203485257451246   Color=Cyan   FromFile=No   AMod=1   A2Mod=1 _
        A3Mod=1   JMod=1   I2Mod=1   I3Mod=1   MMod=1   WMod=1   Notes="Added 02/09/2025 11:22:01"
   SectionName=PPS132   Material=steel   Shape=Pipe   t3=0.06   tw=0.0025   Area=0.000451603943953533   TorsConst=3.73984516086519E-07   I33=1.8699225804326E-07   I22=1.8699225804326E-07   I23=0   AS2=0.000226086357331901 _
        AS3=0.000226086357331901   S33=6.23307526810866E-06   S22=6.23307526810866E-06   Z33=8.27083333333333E-06   Z22=8.27083333333333E-06   R33=0.0203485257451246   R22=0.0203485257451246   Color=Yellow   FromFile=No   AMod=1   A2Mod=1 _
        A3Mod=1   JMod=1   I2Mod=1   I3Mod=1   MMod=1   WMod=1   Notes="Added 1/21/2019 1:26:47 PM"
   SectionName="Push pull"   Material=MAT   Shape=Pipe   t3=0.0966   tw=0.004   Area=0.00116364591888966   TorsConst=2.49915070354013E-06   I33=1.24957535177007E-06   I22=1.24957535177007E-06   I23=0   AS2=0.000582546274603104 _
        AS3=0.000582546274603104   S33=2.58711252954465E-05   S22=2.58711252954465E-05   Z33=3.43203733333333E-05   Z22=3.43203733333333E-05   R33=0.0327695743030025   R22=0.0327695743030025   Color=Red   FromFile=No   AMod=1   A2Mod=1 _
        A3Mod=1   JMod=1   I2Mod=1   I3Mod=1   MMod=1   WMod=1   Notes="Added 02-Dec-14 9:30:59 AM"
   SectionName="soldier 10"   Material=steel   Shape="Double Channel"   t3=0.1   t2=0.152   tf=0.008433   tw=0.006   dis=0.052   Area=0.002684208   TorsConst=4.71598771842043E-08   I33=4.1198870893659E-06   I22=5.580202752E-06   I23=0 _
        AS2=0.0012   AS3=0.0016866   S33=8.23977417873181E-05   S22=7.34237204210526E-05   Z33=9.7952236968E-05   Z22=0.000114947232   R33=0.0391773064491889   R22=0.0455949670586932   Color=White   FromFile=No   AMod=1   A2Mod=1   A3Mod=1 _
        JMod=1   I2Mod=1   I3Mod=1   MMod=1   WMod=1   Notes="Added 08-Feb-15 3:40:54 PM"
   SectionName="Soldier with splice"   Material=MAT   Shape="Double Channel"   t3=0.1   t2=0.152   tf=0.016   tw=0.014   dis=0.052   Area=0.005104   TorsConst=3.26276373333333E-07   I33=6.44674133333334E-06   I22=1.10944213333333E-05 _
        I23=0   AS2=0.0028   AS3=0.0032   S33=0.000128934826666667   S22=0.000145979228070175   Z33=0.000166768   Z22=0.000226032   R33=0.0355397844681393   R22=0.0466226542715777   Color=Gray8Dark   FromFile=No   AMod=1   A2Mod=1   A3Mod=1 _
        JMod=1   I2Mod=1   I3Mod=1   MMod=1   WMod=1   Notes="Added 01-Dec-14 9:03:41 PM"
   SectionName=Tube   Material=MAT   Shape=Pipe   t3=0.0483   tw=0.0025   Area=0.000359712358836031   TorsConst=1.89198808657884E-07   I33=9.45994043289422E-08   I22=9.45994043289422E-08   I23=0   AS2=0.000180213083937615 _
        AS3=0.000180213083937615   S33=3.91715959954212E-06   S22=3.91715959954212E-06   Z33=5.24930833333333E-06   Z22=5.24930833333333E-06   R33=0.0162168508040248   R22=0.0162168508040248   Color=Gray8Dark   FromFile=No   AMod=1 _
        A2Mod=1   A3Mod=1   JMod=1   I2Mod=1   I3Mod=1   MMod=1   WMod=1   Notes="Added 01-Dec-14 10:50:40 AM"
   SectionName="tube 2"   Material=MAT   Shape=Pipe   t3=0.0483   tw=0.004   Area=0.000556690218216111   TorsConst=2.75351507459599E-07   I33=1.37675753729799E-07   I22=1.37675753729799E-07   I23=0   AS2=0.000279853890128618 _
        AS3=0.000279853890128618   S33=5.70085936769355E-06   S22=5.70085936769355E-06   Z33=7.87129333333334E-06   Z22=7.87129333333334E-06   R33=0.0157261327096016   R22=0.0157261327096016   Color=Gray4   FromFile=No   AMod=1   A2Mod=1 _
        A3Mod=1   JMod=1   I2Mod=1   I3Mod=1   MMod=1   WMod=1   Notes="Added 01-Dec-14 9:45:43 AM"
   SectionName=W18X35   Material=A992Fy50   Shape="I/Wide Flange"   t3=0.449580019378662   t2=0.1524   tf=0.0107950003027916   tw=0.00762000030279159   t2b=0.1524   tfb=0.0107950003027916   Area=0.0066451481230545 _
        TorsConst=2.10613094010039E-07   I33=0.000212278027056   I22=6.36834089106984E-06   I23=0   AS2=0.00342579956308365   AS3=0.00274193   S33=0.000944339240651205   S22=8.35740274418615E-05   Z33=0.001089739756 _
        Z22=0.000132079742716286   R33=0.178731124716509   R22=0.0309571390832532   Color=Blue   FromFile=Yes   AMod=1   A2Mod=1   A3Mod=1   JMod=1   I2Mod=1   I3Mod=1   MMod=1   WMod=1   SectInFile=W18X35 _
        FileName="C:\Program Files\Computers and Structures\SAP2000 20\Sections8.pro"   Notes="Added 20-Sep-21 4:54:54 PM"
 
TABLE:  "FRAME SECTION PROPERTIES 13 - TIME DEPENDENT"
   SectionName="Angle 50x50x5"   TypeSize=Auto   AutoSFSize=1
   SectionName="channel splice"   TypeSize=Auto   AutoSFSize=1
   SectionName="double H20"   TypeSize=Auto   AutoSFSize=1
   SectionName="double soldier"   TypeSize=Auto   AutoSFSize=1
   SectionName=FSEC1   TypeSize=Auto   AutoSFSize=1
   SectionName=FSEC2   TypeSize=Auto   AutoSFSize=1
   SectionName=H20   TypeSize=Auto   AutoSFSize=1
   SectionName=plate   TypeSize=Auto   AutoSFSize=1
   SectionName="plate 50 x 8"   TypeSize=Auto   AutoSFSize=1
   SectionName="pph 1.5""x"   TypeSize=Auto   AutoSFSize=1
   SectionName=PPH204   TypeSize=Auto   AutoSFSize=1
   SectionName=PPH304   TypeSize=Auto   AutoSFSize=1
   SectionName=PPS132   TypeSize=Auto   AutoSFSize=1
   SectionName="Push pull"   TypeSize=Auto   AutoSFSize=1
   SectionName="soldier 10"   TypeSize=Auto   AutoSFSize=1
   SectionName="Soldier with splice"   TypeSize=Auto   AutoSFSize=1
   SectionName=Tube   TypeSize=Auto   AutoSFSize=1
   SectionName="tube 2"   TypeSize=Auto   AutoSFSize=1
   SectionName=W18X35   TypeSize=Auto   AutoSFSize=0
 
TABLE:  "FUNCTION - PLOT FUNCTIONS"
   PlotFunc="Input Energy"   Type=Energy   Component=Input   Mode=All
 
TABLE:  "FUNCTION - POWER SPECTRAL DENSITY - USER"
   Name=UNIFPSD   Frequency=0   Value=1
   Name=UNIFPSD   Frequency=1   Value=1
 
TABLE:  "FUNCTION - RESPONSE SPECTRUM - USER"
   Name=UNIFRS   Period=0   Accel=1   FuncDamp=0.05
   Name=UNIFRS   Period=1   Accel=1
 
TABLE:  "FUNCTION - STEADY STATE - USER"
   Name=UNIFSS   Frequency=0   Value=1
   Name=UNIFSS   Frequency=1   Value=1
 
TABLE:  "FUNCTION - TIME HISTORY - USER"
   Name=RAMPTH   Time=0   Value=0
   Name=RAMPTH   Time=1   Value=1
   Name=RAMPTH   Time=4   Value=1
   Name=UNIFTH   Time=0   Value=1
   Name=UNIFTH   Time=1   Value=1
 
TABLE:  "GRID LINES"
   CoordSys=GLOBAL   AxisDir=X   XRYZCoord=-7.49325943548058   LineType=Primary   LineColor=Gray8Dark   Visible=Yes   BubbleLoc=End   AllVisible=Yes   BubbleSize=1
   CoordSys=GLOBAL   AxisDir=X   XRYZCoord=0   LineType=Primary   LineColor=Gray8Dark   Visible=Yes   BubbleLoc=End
   CoordSys=GLOBAL   AxisDir=X   XRYZCoord=7.49325943548058   LineType=Primary   LineColor=Gray8Dark   Visible=Yes   BubbleLoc=End
   CoordSys=GLOBAL   AxisDir=Y   XRYZCoord=0   LineType=Primary   LineColor=Gray8Dark   Visible=Yes   BubbleLoc=End
   CoordSys=GLOBAL   AxisDir=Z   XRYZCoord=0   LineType=Primary   LineColor=Gray8Dark   Visible=Yes   BubbleLoc=End
   CoordSys=GLOBAL   AxisDir=Z   XRYZCoord=1.80036335493135   LineType=Primary   LineColor=Gray8Dark   Visible=Yes   BubbleLoc=End
 
TABLE:  "GROUPS 1 - DEFINITIONS"
   GroupName=All   Selection=Yes   SectionCut=Yes   Steel=Yes   Concrete=Yes   Aluminum=Yes   ColdFormed=Yes   Stage=Yes   Bridge=Yes   AutoSeismic=No   AutoWind=No   SelDesSteel=No   SelDesAlum=No   SelDesCold=No   MassWeight=Yes   Color=Red
   GroupName=DXFIN   Selection=Yes   SectionCut=Yes   Steel=Yes   Concrete=Yes   Aluminum=Yes   ColdFormed=Yes   Stage=Yes   Bridge=Yes   AutoSeismic=No   AutoWind=No   SelDesSteel=No   SelDesAlum=No   SelDesCold=No   MassWeight=Yes   Color=Black
   GroupName=DXFIN-1   Selection=Yes   SectionCut=Yes   Steel=Yes   Concrete=Yes   Aluminum=Yes   ColdFormed=Yes   Stage=Yes   Bridge=Yes   AutoSeismic=No   AutoWind=No   SelDesSteel=No   SelDesAlum=No   SelDesCold=No   MassWeight=Yes   Color=Black
   GroupName=DXFIN-2   Selection=Yes   SectionCut=Yes   Steel=Yes   Concrete=Yes   Aluminum=Yes   ColdFormed=Yes   Stage=Yes   Bridge=Yes   AutoSeismic=No   AutoWind=No   SelDesSteel=No   SelDesAlum=No   SelDesCold=No   MassWeight=Yes   Color=Black
   GroupName=DXFIN-3   Selection=Yes   SectionCut=Yes   Steel=Yes   Concrete=Yes   Aluminum=Yes   ColdFormed=Yes   Stage=Yes   Bridge=Yes   AutoSeismic=No   AutoWind=No   SelDesSteel=No   SelDesAlum=No   SelDesCold=No   MassWeight=Yes   Color=Black
   GroupName=DXFIN-4   Selection=Yes   SectionCut=Yes   Steel=Yes   Concrete=Yes   Aluminum=Yes   ColdFormed=Yes   Stage=Yes   Bridge=Yes   AutoSeismic=No   AutoWind=No   SelDesSteel=No   SelDesAlum=No   SelDesCold=No   MassWeight=Yes   Color=Black
   GroupName=DXFIN-5   Selection=Yes   SectionCut=Yes   Steel=Yes   Concrete=Yes   Aluminum=Yes   ColdFormed=Yes   Stage=Yes   Bridge=Yes   AutoSeismic=No   AutoWind=No   SelDesSteel=No   SelDesAlum=No   SelDesCold=No   MassWeight=Yes   Color=Black
   GroupName=DXFIN-6   Selection=Yes   SectionCut=Yes   Steel=Yes   Concrete=Yes   Aluminum=Yes   ColdFormed=Yes   Stage=Yes   Bridge=Yes   AutoSeismic=No   AutoWind=No   SelDesSteel=No   SelDesAlum=No   SelDesCold=No   MassWeight=Yes   Color=Black
   GroupName="SAP 2000"   Selection=Yes   SectionCut=Yes   Steel=Yes   Concrete=Yes   Aluminum=Yes   ColdFormed=Yes   Stage=Yes   Bridge=Yes   AutoSeismic=No   AutoWind=No   SelDesSteel=No   SelDesAlum=No   SelDesCold=No   MassWeight=Yes   Color=Black
   GroupName=frame   Selection=Yes   SectionCut=Yes   Steel=Yes   Concrete=Yes   Aluminum=Yes   ColdFormed=Yes   Stage=Yes   Bridge=Yes   AutoSeismic=No   AutoWind=No   SelDesSteel=No   SelDesAlum=No   SelDesCold=No   MassWeight=Yes   Color=Black
   GroupName=DECKING   Selection=Yes   SectionCut=Yes   Steel=Yes   Concrete=Yes   Aluminum=Yes   ColdFormed=Yes   Stage=Yes   Bridge=Yes   AutoSeismic=No   AutoWind=No   SelDesSteel=No   SelDesAlum=No   SelDesCold=No   MassWeight=Yes   Color=Black
   GroupName=-h20   Selection=Yes   SectionCut=Yes   Steel=Yes   Concrete=Yes   Aluminum=Yes   ColdFormed=Yes   Stage=Yes   Bridge=Yes   AutoSeismic=No   AutoWind=No   SelDesSteel=No   SelDesAlum=No   SelDesCold=No   MassWeight=Yes   Color=Black
   GroupName=frame-1   Selection=Yes   SectionCut=Yes   Steel=Yes   Concrete=Yes   Aluminum=Yes   ColdFormed=Yes   Stage=Yes   Bridge=Yes   AutoSeismic=No   AutoWind=No   SelDesSteel=No   SelDesAlum=No   SelDesCold=No   MassWeight=Yes   Color=Black
 
TABLE:  "GROUPS 2 - ASSIGNMENTS"
 
TABLE:  "JOINT COORDINATES"
   Joint=15   CoordSys=GLOBAL   CoordType=Cartesian   XorR=0   Y=0.6   Z=0   SpecialJt=Yes   GUID=4673f484-4f44-4e76-99ab-23f42926107e
   Joint=27   CoordSys=GLOBAL   CoordType=Cartesian   XorR=0   Y=0   Z=0   SpecialJt=Yes   GUID=c91c87f6-3aff-459e-ba75-6a58a7dca420
   Joint=28   CoordSys=GLOBAL   CoordType=Cartesian   XorR=0   Y=0   Z=3.45   SpecialJt=Yes   GUID=f6aefa44-9ca0-45ae-ba96-19a75c04ad36
   Joint=29   CoordSys=GLOBAL   CoordType=Cartesian   XorR=2.05   Y=0   Z=0   SpecialJt=Yes   GUID=c90cae69-4106-404e-b6bb-ab51226ced4a
   Joint=30   CoordSys=GLOBAL   CoordType=Cartesian   XorR=1.1   Y=0   Z=0   SpecialJt=Yes   GUID=549809d6-db7e-4e59-8031-61612ccec68a
   Joint=31   CoordSys=GLOBAL   CoordType=Cartesian   XorR=1.5   Y=0   Z=0   SpecialJt=Yes   GUID=3ac48490-561e-4865-b5c4-c314aa5d3844
   Joint=32   CoordSys=GLOBAL   CoordType=Cartesian   XorR=1.8   Y=0   Z=0   SpecialJt=Yes   GUID=53d8be5f-c4ee-4fe0-a646-8a5d3360cbbf
   Joint=33   CoordSys=GLOBAL   CoordType=Cartesian   XorR=0   Y=0   Z=0.7   SpecialJt=Yes   GUID=f0ab6ac9-3790-4f5f-8973-b6e17662d411
   Joint=34   CoordSys=GLOBAL   CoordType=Cartesian   XorR=0   Y=0   Z=1.6   SpecialJt=Yes   GUID=7ca09ccb-d1de-43af-8632-1841837e9141
   Joint=35   CoordSys=GLOBAL   CoordType=Cartesian   XorR=0   Y=0   Z=2.8   SpecialJt=Yes   GUID=8ecd0a83-4ea2-47de-b451-fea2e61b39f5
   Joint=36   CoordSys=GLOBAL   CoordType=Cartesian   XorR=0   Y=0   Z=0.4   SpecialJt=Yes   GUID=933ffd23-9187-47e5-98ab-7b4e45bd95f2
   Joint=37   CoordSys=GLOBAL   CoordType=Cartesian   XorR=0   Y=0   Z=1.41   SpecialJt=Yes   GUID=09ee9975-7675-4ef7-b1bd-66543f6d9012
   Joint=38   CoordSys=GLOBAL   CoordType=Cartesian   XorR=0   Y=0   Z=2.9   SpecialJt=Yes   GUID=52ad55bf-4f1e-4351-bf82-f8c5d7b72c95
 
TABLE:  "JOINT LOADS - FORCE"
   Joint=36   LoadPat=DEAD   CoordSys=GLOBAL   F1=32.6   F2=0   F3=0   M1=0   M2=0   M3=0   GUID=11ec8b4d-eeb9-4b51-b165-5b8f63ecf4c4
   Joint=37   LoadPat=DEAD   CoordSys=GLOBAL   F1=4.6   F2=0   F3=0   M1=0   M2=0   M3=0   GUID=12d1c5fc-3f8d-484b-8721-1856d0470798
 
TABLE:  "JOINT LOCAL AXES ASSIGNMENTS 1 - TYPICAL"
   Joint=27   AngleA=0   AngleB=45   AngleC=0
 
TABLE:  "JOINT PATTERN DEFINITIONS"
   Pattern=Default
 
TABLE:  "JOINT RESTRAINT ASSIGNMENTS"
   Joint=27   U1=Yes   U2=Yes   U3=Yes   R1=No   R2=No   R3=No
   Joint=30   U1=No   U2=No   U3=Yes   R1=No   R2=No   R3=No
   Joint=31   U1=No   U2=No   U3=Yes   R1=No   R2=No   R3=No
   Joint=32   U1=No   U2=No   U3=Yes   R1=No   R2=No   R3=No
 
TABLE:  "LINK PROPERTY DEFINITIONS 01 - GENERAL"
   Link=LINK1   LinkType=Linear   Mass=0   Weight=0   RotInert1=0   RotInert2=0   RotInert3=0   DefLength=1   DefArea=1   PDM2I=0   PDM2J=0   PDM3I=0   PDM3J=0   StiffDFact=1   Color=Cyan   GUID=6feddbc0-6037-400a-ad9a-eda8a809a052   Notes="Added 20-Mar-18 5:43:22 PM"
 
TABLE:  "LINK PROPERTY DEFINITIONS 02 - LINEAR"
   Link=LINK1   DOF=U1   Fixed=No   TransKE=1   TransCE=0
 
TABLE:  "LOAD CASE DEFINITIONS"
   Case=DEAD   Type=LinStatic   InitialCond=Zero   DesTypeOpt="Prog Det"   DesignType=Dead   DesActOpt="Prog Det"   DesignAct=Non-Composite   AutoType=None   RunCase=Yes   GUID=6f3b076c-d75e-488d-b7bf-110f6cd08d35
   Case=MODAL   Type=LinModal   InitialCond=Zero   DesTypeOpt="Prog Det"   DesignType=Other   DesActOpt="Prog Det"   DesignAct=Other   AutoType=None   RunCase=No   GUID=4f4ef288-e947-463a-88e6-a573e92b0057
   Case=LIVE   Type=LinStatic   InitialCond=Zero   DesTypeOpt="Prog Det"   DesignType=Live   DesActOpt="Prog Det"   DesignAct="Short-Term Composite"   AutoType=None   RunCase=Yes   GUID=5285da07-02d0-47ad-b3d8-a0e0cea0e0ab
 
TABLE:  "LOAD PATTERN DEFINITIONS"
   LoadPat=DEAD   DesignType=Dead   SelfWtMult=1   GUID=2104835f-5244-450a-afc9-bbadf1618c9b
   LoadPat=LIVE   DesignType=Live   SelfWtMult=0   GUID=2104835f-5244-450a-afc9-bbadf1618c9b   Notes="Added 30-Aug-21 3:45:18 PM"
 
TABLE:  "MASS SOURCE"
   MassSource=MSSSRC1   Elements=Yes   Masses=Yes   Loads=No   IsDefault=Yes
 
TABLE:  "MATERIAL PROPERTIES 01 - GENERAL"
   Material=4000Psi   Type=Concrete   Grade="f'c 4000 psi"   SymType=Isotropic   TempDepend=No   Color=Yellow   Notes="Customary f'c 4000 psi 20-Mar-18 5:43:06 PM"
   Material=A416Gr270   Type=Tendon   Grade="Grade 270"   SymType=Uniaxial   TempDepend=No   Color=Cyan   Notes="ASTM A416 Grade 270 27/07/2016 03:45:01 ص"
   Material=A615Gr60   Type=Rebar   Grade="Grade 60"   SymType=Uniaxial   TempDepend=No   Color=Blue   Notes="ASTM A615 Grade 60 02-Dec-14 9:22:24 AM"
   Material=A992Fy50   Type=Steel   Grade="Grade 50"   SymType=Isotropic   TempDepend=No   Color=Magenta   Notes="ASTM A992 Grade 50 20-Mar-18 5:43:06 PM"
   Material=MAT   Type=Steel   Grade="Grade 50"   SymType=Isotropic   TempDepend=No   Color=Cyan   Notes="ASTM A992 Grade 50 01-Dec-14 5:37:12 PM"
   Material=steel   Type=Steel   Grade="Grade 50"   SymType=Isotropic   TempDepend=No   Color=Gray8Dark   Notes="ASTM A992 Fy=50 ksi added 08-Feb-15 3:40:43 PM"
   Material=TIMBER   Type=Other   SymType=Isotropic   TempDepend=No   Color=Yellow   Notes="ASTM A36 added 28-Nov-15 5:17:08 PM"
 
TABLE:  "MATERIAL PROPERTIES 02 - BASIC MECHANICAL PROPERTIES"
   Material=4000Psi   UnitWeight=23.5631216161854   UnitMass=2.40276960558926   E1=24855578.0600518   G12=10356490.8583549   U12=0.2   A1=9.89999952793124E-06
   Material=A416Gr270   UnitWeight=76.9728639422648   UnitMass=7.84904737995992   E1=196500599.8512   A1=1.16999994421006E-05
   Material=A615Gr60   UnitWeight=76.9728639422648   UnitMass=7.84904737995992   E1=199947978.795958   A1=1.16999994421006E-05
   Material=A992Fy50   UnitWeight=76.9728639422648   UnitMass=7.84904737995992   E1=199947978.795958   G12=76903068.7676762   U12=0.3   A1=1.16999994421006E-05
   Material=MAT   UnitWeight=76.9728639422648   UnitMass=7.84904737995992   E1=200000000   G12=76923076.9230769   U12=0.3   A1=1.16999994421006E-05
   Material=steel   UnitWeight=76.9728639422648   UnitMass=7.84904737995992   E1=199947978.795958   G12=76903068.7676762   U12=0.3   A1=1.17E-05
   Material=TIMBER   UnitWeight=8   UnitMass=0.815772953777936   E1=9066248.10953623   G12=3777603.37897343   U12=0.2   A1=1.17E-06
 
TABLE:  "MATERIAL PROPERTIES 03A - STEEL DATA"
   Material=A992Fy50   Fy=344737.894475789   Fu=448159.262818526   EffFy=379211.683923368   EffFu=492975.189100378   SSCurveOpt=Simple   SSHysType=Kinematic   SHard=0.015   SMax=0.11   SRup=0.17   FinalSlope=-0.1
   Material=MAT   Fy=248211   Fu=399896   EffFy=248211   EffFu=399896   SSCurveOpt=Simple   SSHysType=Kinematic   SHard=0.015   SMax=0.11   SRup=0.17   FinalSlope=-0.1
   Material=steel   Fy=248211.28   Fu=399896   EffFy=372316.9   EffFu=439885.6   SSCurveOpt=Simple   SSHysType=Kinematic   SHard=0.015   SMax=0.11   SRup=0.17   FinalSlope=-0.1
 
TABLE:  "MATERIAL PROPERTIES 03B - CONCRETE DATA"
   Material=4000Psi   Fc=27579.0315580631   eFc=27579.0315580631   LtWtConc=No   SSCurveOpt=Mander   SSHysType=Takeda   SFc=0.00221914   SCap=0.005   FinalSlope=-0.1   FAngle=0   DAngle=0
 
TABLE:  "MATERIAL PROPERTIES 03E - REBAR DATA"
   Material=A615Gr60   Fy=413685.473370947   Fu=620528.21005642   EffFy=455054.020708041   EffFu=682581.031062062   SSCurveOpt=Simple   SSHysType=Kinematic   SHard=0.01   SCap=0.09   FinalSlope=-0.1   UseCTDef=No
 
TABLE:  "MATERIAL PROPERTIES 03F - TENDON DATA"
   Material=A416Gr270   Fy=1689905.15872032   Fu=1861584.63016926   SSCurveOpt="270 ksi"   SSHysType=Kinematic   FinalSlope=-0.1
 
TABLE:  "MATERIAL PROPERTIES 03G - OTHER DATA"
   Material=TIMBER   SSHysType=Takeda   FAngle=0   DAngle=0
 
TABLE:  "MATERIAL PROPERTIES 04 - USER STRESS-STRAIN CURVES"
   Material=TIMBER   Strain=-1.10299209542717E-07   Stress=-0.999999999999999
   Material=TIMBER   Strain=0   Stress=0   PointID=A
   Material=TIMBER   Strain=1.10299209542717E-07   Stress=0.999999999999999
 
TABLE:  "MATERIAL PROPERTIES 06 - DAMPING PARAMETERS"
   Material=4000Psi   ModalRatio=0   VisMass=0   VisStiff=0   HysMass=0   HysStiff=0
   Material=A416Gr270   ModalRatio=0   VisMass=0   VisStiff=0   HysMass=0   HysStiff=0
   Material=A615Gr60   ModalRatio=0   VisMass=0   VisStiff=0   HysMass=0   HysStiff=0
   Material=A992Fy50   ModalRatio=0   VisMass=0   VisStiff=0   HysMass=0   HysStiff=0
   Material=MAT   ModalRatio=0   VisMass=0   VisStiff=0   HysMass=0   HysStiff=0
   Material=steel   ModalRatio=0   VisMass=0   VisStiff=0   HysMass=0   HysStiff=0
   Material=TIMBER   ModalRatio=0   VisMass=0   VisStiff=0   HysMass=0   HysStiff=0
 
TABLE:  "OPTIONS - COLORS - DISPLAY"
   DeviceType=Screen   Points=Blue   LinesFrame=Blue   LinesFrmDL=Blue   LinesCable=Green   LinesTendon=Green   SpringLinks=Green   Restraints=Green   Releases=Green   Axes=Cyan   Text=Black   ShadowLines=Gray8Dark   GuideLines=Gray8Dark _
        Highlight=Red   Selection=10504778   AreaFillBot=Red   AreaFillTop=16744703   AreaFillSd=Red   AreaEdge=DarkRed   SolidF1=Red   SolidF2=Blue   SolidF3=Green   SolidF4=Yellow   SolidF5=White   SolidF6=Cyan   SolidEdge=DarkRed _
        Floor=Gray4   Background=White   BGLowLeft=White   BGLowRight=White   BGUpRight=White   Darkness=0
   DeviceType=Printer   Points=Gray8Dark   LinesFrame=Black   LinesFrmDL=Gray4   LinesCable=Black   LinesTendon=Black   SpringLinks=Gray8Dark   Restraints=Gray8Dark   Releases=Gray4   Axes=Black   Text=Black   ShadowLines=Gray4 _
        GuideLines=Gray4   Highlight=Black   Selection=Black   AreaFillBot=Gray4   AreaFillTop=Gray8Dark   AreaFillSd=Gray4   AreaEdge=Black   SolidF1=Gray1Light   SolidF2=Gray2   SolidF3=Gray3   SolidF4=Gray4   SolidF5=Gray5 _
        SolidF6=Gray6   SolidEdge=Black   Floor=Gray4   Background=White   BGLowLeft=White   BGLowRight=White   BGUpRight=White   Darkness=0.5
   DeviceType="Color Printer"   Points=Blue   LinesFrame=Blue   LinesFrmDL=Blue   LinesCable=Green   LinesTendon=Green   SpringLinks=Green   Restraints=Green   Releases=Green   Axes=Cyan   Text=Black   ShadowLines=Gray8Dark _
        GuideLines=Gray8Dark   Highlight=Red   Selection=10504778   AreaFillBot=Red   AreaFillTop=16744703   AreaFillSd=Red   AreaEdge=DarkRed   SolidF1=Red   SolidF2=Blue   SolidF3=Green   SolidF4=Yellow   SolidF5=White   SolidF6=Cyan _
        SolidEdge=DarkRed   Floor=Gray4   Background=White   BGLowLeft=White   BGLowRight=White   BGUpRight=White   Darkness=0.5
 
TABLE:  "OPTIONS - COLORS - OUTPUT"
   DeviceType=Screen   Contour1=13107400   Contour2=6553828   Contour3=Red   Contour4=16639   Contour5=Orange   Contour6=43775   Contour7=54527   Contour8=Yellow   Contour9=65408   Contour10=Green   Contour11=8453888   Contour12=Cyan _
        Contour13=16755200   Contour14=16733440   Contour15=Blue   Transpare=0.5   Ratio1=Cyan   Ratio2=Green   Ratio3=Yellow   Ratio4=Orange   Ratio5=Red   RatioNotD=Gray4   RatioNotC=Red   RatioVal1=0.5   RatioVal2=0.7   RatioVal3=0.9 _
        RatioVal4=1   DFillPos=Blue   DFillNeg=Red   DFillRPos=Green   DFillRNeg=Green
   DeviceType=Printer   Contour1=Black   Contour2=3158064   Contour3=4210752   Contour4=5263440   Contour5=6316128   Contour6=7368816   Contour7=Gray8Dark   Contour8=Gray7   Contour9=Gray6   Contour10=Gray5   Contour11=Gray4 _
        Contour12=Gray3   Contour13=Gray2   Contour14=Gray1Light   Contour15=White   Transpare=0   Ratio1=Gray2   Ratio2=Gray4   Ratio3=Gray8Dark   Ratio4=4210752   Ratio5=Black   RatioNotD=Gray4   RatioNotC=Black   RatioVal1=0.5 _
        RatioVal2=0.7   RatioVal3=0.9   RatioVal4=1   DFillPos=Gray8Dark   DFillNeg=Gray8Dark   DFillRPos=4210752   DFillRNeg=4210752
   DeviceType="Color Printer"   Contour1=13107400   Contour2=6553828   Contour3=Red   Contour4=16639   Contour5=Orange   Contour6=43775   Contour7=54527   Contour8=Yellow   Contour9=65408   Contour10=Green   Contour11=8453888 _
        Contour12=Cyan   Contour13=16755200   Contour14=16733440   Contour15=Blue   Transpare=0   Ratio1=Cyan   Ratio2=Green   Ratio3=Yellow   Ratio4=Orange   Ratio5=Red   RatioNotD=Gray4   RatioNotC=Red   RatioVal1=0.5   RatioVal2=0.7 _
        RatioVal3=0.9   RatioVal4=1   DFillPos=Blue   DFillNeg=Red   DFillRPos=Green   DFillRNeg=Green
 
TABLE:  "OVERWRITES - STEEL DESIGN - BS5950 2000"
   Frame=11   DesignSect="Program Determined"   FrameType="Program Determined"   Fy=0   RLLF=0   AreaRatio=0   XLMajor=0   XLMinor=0   XKMajor=0   XKMinor=0   MMajor=0   MMinor=0   MLT=0   Pc=0   Pt=0   Mc3=0   Mc2=0   Mb=0   Pv2=0   Pv3=0 _
        CheckDefl="Program Determined"   DeflType="Program Determined"   DLRat=0   SDLAndLLRat=0   LLRat=0   TotalRat=0   NetRat=0   DLAbs=0   SDLAndLLAbs=0   LLAbs=0   TotalAbs=0   NetAbs=0   SpecCamber=0
   Frame=12   DesignSect="Program Determined"   FrameType="Program Determined"   Fy=0   RLLF=0   AreaRatio=0   XLMajor=0   XLMinor=0   XKMajor=0   XKMinor=0   MMajor=0   MMinor=0   MLT=0   Pc=0   Pt=0   Mc3=0   Mc2=0   Mb=0   Pv2=0   Pv3=0 _
        CheckDefl="Program Determined"   DeflType="Program Determined"   DLRat=0   SDLAndLLRat=0   LLRat=0   TotalRat=0   NetRat=0   DLAbs=0   SDLAndLLAbs=0   LLAbs=0   TotalAbs=0   NetAbs=0   SpecCamber=0
   Frame=13   DesignSect="Program Determined"   FrameType="Program Determined"   Fy=0   RLLF=0   AreaRatio=0   XLMajor=0   XLMinor=0   XKMajor=0   XKMinor=0   MMajor=0   MMinor=0   MLT=0   Pc=0   Pt=0   Mc3=0   Mc2=0   Mb=0   Pv2=0   Pv3=0 _
        CheckDefl="Program Determined"   DeflType="Program Determined"   DLRat=0   SDLAndLLRat=0   LLRat=0   TotalRat=0   NetRat=0   DLAbs=0   SDLAndLLAbs=0   LLAbs=0   TotalAbs=0   NetAbs=0   SpecCamber=0
   Frame=14   DesignSect="Program Determined"   FrameType="Program Determined"   Fy=0   RLLF=0   AreaRatio=0   XLMajor=0   XLMinor=0   XKMajor=0   XKMinor=0   MMajor=0   MMinor=0   MLT=0   Pc=0   Pt=0   Mc3=0   Mc2=0   Mb=0   Pv2=0   Pv3=0 _
        CheckDefl="Program Determined"   DeflType="Program Determined"   DLRat=0   SDLAndLLRat=0   LLRat=0   TotalRat=0   NetRat=0   DLAbs=0   SDLAndLLAbs=0   LLAbs=0   TotalAbs=0   NetAbs=0   SpecCamber=0
   Frame=15   DesignSect="Program Determined"   FrameType="Program Determined"   Fy=0   RLLF=0   AreaRatio=0   XLMajor=0   XLMinor=0   XKMajor=0   XKMinor=0   MMajor=0   MMinor=0   MLT=0   Pc=0   Pt=0   Mc3=0   Mc2=0   Mb=0   Pv2=0   Pv3=0 _
        CheckDefl="Program Determined"   DeflType="Program Determined"   DLRat=0   SDLAndLLRat=0   LLRat=0   TotalRat=0   NetRat=0   DLAbs=0   SDLAndLLAbs=0   LLAbs=0   TotalAbs=0   NetAbs=0   SpecCamber=0
 
TABLE:  "PREFERENCES - ALUMINUM DESIGN - AA-ASD 2000"
   THDesign=Envelopes   FrameType="Moment Frame"   SRatioLimit=1   MaxIter=1   LatFact=1.33333333333333   UseLatFact=No   Bridge=No
 
TABLE:  "PREFERENCES - COLD FORMED DESIGN - AISI-ASD96"
   THDesign=Envelopes   FrameType="Braced Frame"   SRatioLimit=1   MaxIter=1   OmegaBS=1.67   OmegaBUS=1.67   OmegaBLTB=1.67   OmegaVS=1.67   OmegaVNS=1.5   OmegaT=1.67   OmegaC=1.8
 
TABLE:  "PREFERENCES - CONCRETE DESIGN - ACI 318-08/IBC2009"
   THDesign=Envelopes   NumCurves=24   NumPoints=11   MinEccen=Yes   PatLLF=0.75   UFLimit=0.95   SeisCat=D   Rho=1   Sds=0.5   PhiT=0.9   PhiCTied=0.65   PhiCSpiral=0.75   PhiV=0.75   PhiVSeismic=0.6   PhiVJoint=0.85
 
TABLE:  "PREFERENCES - DIMENSIONAL"
   MergeTol=0.001   FineGrid=0.25   Nudge=0.25   SelectTol=3   SnapTol=12   SLineThick=2   PLineThick=4   MaxFont=10   MinFont=10   AutoZoom=10   ShrinkFact=70   TextFileLen=240
 
TABLE:  "PREFERENCES - STEEL DESIGN - BS5950 2000"
   THDesign=Envelopes   FrameType="Moment Frame"   PatLLF=0.75   SRatioLimit=0.95   MaxIter=1   CheckDefl=No   DLRat=120   SDLAndLLRat=120   LLRat=360   TotalRat=240   NetRat=240
 
TABLE:  "PROGRAM CONTROL"
   ProgramName=SAP2000   Version=21.2.0   CurrUnits="KN, m, C"   SteelCode="BS5950 2000"   ConcCode="ACI 318-08/IBC2009"   AlumCode="AA-ASD 2000"   ColdCode=AISI-ASD96   RegenHinge=Yes
 
TABLE:  "PROJECT INFORMATION"
   Item="Company Name"
   Item="Client Name"
   Item="Project Name"
   Item="Project Number"
   Item="Model Name"
   Item="Model Description"
   Item="Revision Number"
   Item="Frame Type"
   Item=Engineer
   Item=Checker
   Item=Supervisor
   Item="Issue Code"
   Item="Design Code"
 
TABLE:  "REBAR SIZES"
   RebarID=#2   Area=3.2258E-05   Diameter=0.00635
   RebarID=#3   Area=7.09675996154547E-05   Diameter=0.009525
   RebarID=#4   Area=0.000129032001922727   Diameter=0.0127
   RebarID=#5   Area=0.000199999601538181   Diameter=0.015875
   RebarID=#6   Area=0.000283870398461819   Diameter=0.01905
   RebarID=#7   Area=0.000387096015381813   Diameter=0.022225
   RebarID=#8   Area=0.000509676413843632   Diameter=0.0254
   RebarID=#9   Area=0.00064516   Diameter=0.0286512005329132
   RebarID=#10   Area=0.00081935318769455   Diameter=0.0322579995155334
   RebarID=#11   Area=0.00100644956308365   Diameter=0.0358139991521835
   RebarID=#14   Area=0.00145161   Diameter=0.0430021989583969
   RebarID=#18   Area=0.00258064   Diameter=0.0573277992248535
   RebarID=10M   Area=0.000100000002655387   Diameter=0.011300000667572
   RebarID=15M   Area=0.000200000005310774   Diameter=0.0159999999403954
   RebarID=20M   Area=0.000300000017579794   Diameter=0.0194999997854233
   RebarID=25M   Area=0.000500000022890568   Diameter=0.0252000016093254
   RebarID=30M   Area=0.000700000008974075   Diameter=0.0299000008821487
   RebarID=35M   Area=0.00100000004578114   Diameter=0.0357000011444092
   RebarID=45M   Area=0.00150000010712624   Diameter=0.0437000003576279
   RebarID=55M   Area=0.00250000007599831   Diameter=0.0564000033855438
   RebarID=6d   Area=2.83000004149973E-05   Diameter=0.006000000166893
   RebarID=8d   Area=5.02999995571375E-05   Diameter=0.00799999997019768
   RebarID=10d   Area=7.85000013634562E-05   Diameter=0.00999999977350235
   RebarID=12d   Area=0.000113000009249449   Diameter=0.012000000333786
   RebarID=14d   Area=0.000154000010818839   Diameter=0.0140000008940697
   RebarID=16d   Area=0.000201000015431643   Diameter=0.0159999999403954
   RebarID=20d   Area=0.000314000005453825   Diameter=0.0199999995470047
   RebarID=25d   Area=0.000491000008711815   Diameter=0.0250000001907349
   RebarID=26d   Area=0.000531000029001236   Diameter=0.0259999997138977
   RebarID=28d   Area=0.000616000043275356   Diameter=0.0280000017881393
   RebarID=N12   Area=0.000113000009249449   Diameter=0.012000000333786
   RebarID=N16   Area=0.000201000015431643   Diameter=0.0159999999403954
   RebarID=N20   Area=0.000314000005453825   Diameter=0.0199999995470047
   RebarID=N24   Area=0.000452000036997795   Diameter=0.024000000667572
   RebarID=N28   Area=0.000616000043275356   Diameter=0.0280000017881393
   RebarID=N32   Area=0.00080400006172657   Diameter=0.0319999998807907
   RebarID=N36   Area=0.00102000001747131   Diameter=0.036000001001358
 
TABLE:  "SECTION DESIGNER PROPERTIES 01 - GENERAL"
   SectionName="double H20"   DesignType="No Check/Design"   DsgnOrChck=Check   IncludeVStr=No   AxisAngle=90   MeshSzAbs=0   MeshSzRel=0.05
   SectionName=plate   DesignType="No Check/Design"   DsgnOrChck=Check   IncludeVStr=No   AxisAngle=90   MeshSzAbs=0   MeshSzRel=0.05
   SectionName="plate 50 x 8"   DesignType="No Check/Design"   DsgnOrChck=Check   IncludeVStr=No   AxisAngle=90   MeshSzAbs=0   MeshSzRel=0.05
 
TABLE:  "SECTION DESIGNER PROPERTIES 04 - SHAPE I/WIDE FLANGE"
   SectionName="double H20"   ShapeName=ISection1   ShapeType="User Defined"   ShapeMat=TIMBER   ZOrder=1   FillColor=4210752   XCenter=0   YCenter=0   Height=0.2   TopWidth=0.08   TopThick=0.04   WebThick=0.03   BotWidth=0.08 _
        BotThick=0.04   Rotation=0   Reinforcing=No
   SectionName="double H20"   ShapeName=TIMBER   ShapeType="User Defined"   ShapeMat=TIMBER   ZOrder=2   FillColor=4210752   XCenter=0.08   YCenter=0   Height=0.2   TopWidth=0.08   TopThick=0.04   WebThick=0.03   BotWidth=0.08 _
        BotThick=0.04   Rotation=0   Reinforcing=No
 
TABLE:  "SECTION DESIGNER PROPERTIES 30 - FIBER GENERAL"
   SectionName="double H20"   NumFibersD2=3   NumFibersD3=3   CoordSys=Cartesian   GridAngle=0   LumpRebar=No   FiberPMM=No   FiberMC=No
   SectionName=plate   NumFibersD2=3   NumFibersD3=3   CoordSys=Cartesian   GridAngle=0   LumpRebar=No   FiberPMM=No   FiberMC=No
   SectionName="plate 50 x 8"   NumFibersD2=3   NumFibersD3=3   CoordSys=Cartesian   GridAngle=0   LumpRebar=No   FiberPMM=No   FiberMC=No
 
TABLE:  "SOLID PROPERTY DEFINITIONS"
   SolidProp=Solid1   Material=4000Psi   MatAngleA=0   MatAngleB=0   MatAngleC=0   InComp=Yes   Color=Gray8Dark   GUID=5ee1ac54-af43-4ba7-ba16-a0be64c9a23c
 
END TABLE DATA
